Version 4.1
SHEET 1 904 868
WIRE -1984 -304 -2080 -304
WIRE -1872 -304 -1984 -304
WIRE -1712 -304 -1872 -304
WIRE -1664 -304 -1712 -304
WIRE -2080 -256 -2080 -304
WIRE -1984 -256 -1984 -304
WIRE -1712 -256 -1712 -304
WIRE -576 -256 -576 -288
WIRE -1872 -240 -1872 -304
WIRE -704 -176 -704 -208
WIRE -720 -160 -752 -160
WIRE -2080 -144 -2080 -192
WIRE -1984 -144 -1984 -176
WIRE -1872 -144 -1872 -176
WIRE -1712 -144 -1712 -176
WIRE -576 -144 -576 -176
WIRE -576 -144 -656 -144
WIRE -512 -144 -576 -144
WIRE -720 -128 -752 -128
WIRE -752 -112 -752 -128
WIRE -704 -80 -704 -112
WIRE -1984 -48 -2080 -48
WIRE -1872 -48 -1984 -48
WIRE -1712 -48 -1872 -48
WIRE -1648 -48 -1712 -48
WIRE -1984 -16 -1984 -48
WIRE -2640 0 -2640 -32
WIRE -2480 0 -2480 -32
WIRE -2336 0 -2336 -48
WIRE -2176 0 -2176 -48
WIRE -2080 0 -2080 -48
WIRE -1872 0 -1872 -48
WIRE -1712 0 -1712 -48
WIRE -2640 112 -2640 80
WIRE -2480 112 -2480 80
WIRE -2336 112 -2336 80
WIRE -2176 112 -2176 80
WIRE -2080 112 -2080 64
WIRE -1984 112 -1984 64
WIRE -1872 112 -1872 64
WIRE -1712 112 -1712 80
WIRE -576 160 -576 128
WIRE -704 240 -704 208
WIRE -720 256 -752 256
WIRE -576 272 -576 240
WIRE -576 272 -656 272
WIRE -512 272 -576 272
WIRE -720 288 -752 288
WIRE -1952 304 -1952 272
WIRE -752 304 -752 288
WIRE -2192 336 -2192 304
WIRE -1648 336 -1648 320
WIRE -704 336 -704 304
WIRE -2320 352 -2320 304
WIRE -1664 352 -1712 352
WIRE -1552 368 -1600 368
WIRE -1344 368 -1552 368
WIRE -1248 368 -1280 368
WIRE -1088 368 -1088 320
WIRE -1664 384 -1712 384
WIRE -1952 400 -1952 384
WIRE -1952 400 -1984 400
WIRE -1952 416 -1952 400
WIRE -1648 432 -1648 400
WIRE -1616 448 -1616 400
WIRE -1584 448 -1616 448
WIRE -1248 464 -1248 368
WIRE -1088 464 -1088 448
WIRE -2320 480 -2320 416
WIRE -2192 480 -2192 416
WIRE -1952 544 -1952 496
FLAG -1712 -144 0
FLAG -1712 112 0
FLAG -1872 -144 0
FLAG -1872 112 0
FLAG -2336 112 0
FLAG -2176 112 0
FLAG -1552 368 SIGNAL
FLAG -2192 304 SIGNAL
FLAG -1952 544 0
FLAG -2176 -48 VEE
FLAG -2336 -48 VDD
FLAG -1648 320 VDD
FLAG -1648 432 VEE
FLAG -1952 272 VEE
FLAG -1984 400 SD
FLAG -1584 448 SD
FLAG -2192 480 OUTA
FLAG -1248 464 0
FLAG -1664 -304 INN
FLAG -1984 -144 0
FLAG -1648 -48 INP
FLAG -1712 352 OUTA
FLAG -1712 384 OUTB
FLAG -1088 464 0
FLAG -1088 320 SIGNAL
FLAG -2320 304 SIGNAL
FLAG -2320 480 OUTA
FLAG -2080 -144 0
FLAG -2080 112 0
FLAG -1984 112 0
FLAG -752 -160 INN
FLAG -752 256 INP
FLAG -752 304 0
FLAG -752 -112 0
FLAG -2480 112 0
FLAG -2640 112 0
FLAG -2640 -32 P2V5
FLAG -2480 -32 N2V5
FLAG -704 -208 P2V5
FLAG -704 -80 N2V5
FLAG -704 336 N2V5
FLAG -704 208 P2V5
FLAG -432 -144 OUTA
FLAG -432 272 OUTB
FLAG -576 -288 INN
FLAG -576 128 INP
SYMBOL bi -1712 -176 R180
WINDOW 0 -91 92 Left 2
WINDOW 3 -527 2 Left 2
SYMATTR InstName IOUTA
SYMATTR Value I={IFS/2 + (IFS/2)*sin(2*pi*FREQ*time)}
SYMBOL bi -1712 80 R180
WINDOW 0 -85 94 Left 2
WINDOW 3 -573 -10 Left 2
SYMATTR InstName IOUTB
SYMATTR Value I={IFS/2 + (IFS/2)*sin(2*pi*FREQ*time + pi)}
SYMBOL OpAmps\\ADA4870 -1632 368 R0
SYMATTR InstName U1
SYMBOL cap -2096 0 R0
SYMATTR InstName Cb
SYMATTR Value 22p
SYMBOL cap -2096 -256 R0
SYMATTR InstName Ca
SYMATTR Value 22p
SYMBOL voltage -2336 -16 R0
WINDOW 0 24 96 Left 2
WINDOW 3 24 16 Left 2
WINDOW 123 0 0 Left 0
WINDOW 39 0 0 Left 0
SYMATTR InstName V1
SYMATTR Value 18
SYMBOL voltage -2176 96 R180
WINDOW 123 0 0 Left 0
WINDOW 39 0 0 Left 0
SYMATTR InstName V2
SYMATTR Value 18
SYMBOL res -2208 320 R0
SYMATTR InstName Rf
SYMATTR Value {RfVal}
SYMBOL res -1968 288 R0
SYMATTR InstName R1
SYMATTR Value 2K
SYMBOL res -1968 400 R0
SYMATTR InstName R2
SYMATTR Value 10K
SYMBOL cap -1280 352 R90
WINDOW 0 0 32 VBottom 2
WINDOW 3 32 32 VTop 2
SYMATTR InstName Cload
SYMATTR Value 220p
SYMBOL res -416 -160 R90
WINDOW 0 0 56 VBottom 2
WINDOW 3 32 56 VTop 2
SYMATTR InstName Ra
SYMATTR Value {RaVal}
SYMBOL res -416 256 R90
WINDOW 0 0 56 VBottom 2
WINDOW 3 32 56 VTop 2
SYMATTR InstName Rb
SYMATTR Value {RbVal}
SYMBOL res -1104 352 R0
SYMATTR InstName Rload
SYMATTR Value {RloadVal}
SYMBOL cap -2336 352 R0
SYMATTR InstName Cf
SYMATTR Value {CfVal}
SYMBOL res -2000 -272 R0
SYMATTR InstName Rpara
SYMATTR Value 150K
SYMBOL cap -1888 -240 R0
SYMATTR InstName Cpara
SYMATTR Value 5p
SYMBOL cap -1888 0 R0
SYMATTR InstName Cparb
SYMATTR Value 5p
SYMBOL res -2000 -32 R0
SYMATTR InstName Rparb
SYMATTR Value 150K
SYMBOL OpAmps\\ADA4807-2 -688 -144 R0
SYMATTR InstName U2
SYMBOL OpAmps\\ADA4807-2 -688 272 R0
SYMATTR InstName U3
SYMBOL voltage -2480 96 R180
WINDOW 0 24 96 Left 2
WINDOW 3 24 16 Left 2
WINDOW 123 0 0 Left 0
WINDOW 39 0 0 Left 0
SYMATTR InstName V3
SYMATTR Value 2.5
SYMBOL voltage -2640 -16 R0
WINDOW 123 0 0 Left 0
WINDOW 39 0 0 Left 0
SYMATTR InstName V4
SYMATTR Value 2.5
SYMBOL res -560 -160 R180
WINDOW 0 36 76 Left 2
WINDOW 3 36 40 Left 2
SYMATTR InstName Rfn
SYMATTR Value {Rfn}
SYMBOL res -560 256 R180
WINDOW 0 36 76 Left 2
WINDOW 3 36 40 Left 2
SYMATTR InstName Rfp
SYMATTR Value {Rfp}
TEXT -2368 -504 Left 2 !.param IFS=4m\n.param FREQ=1.5Meg
TEXT -2096 -472 Left 2 !.tran 10us
TEXT -2096 -448 Left 2 !.MEAS TRAN Vfinal FIND V(SIGNAL) AT=10us
TEXT -2096 -424 Left 2 !.FOUR 1.5Meg V(SIGNAL)
TEXT -2368 -448 Left 2 !.param RfVal=702
TEXT -2368 -416 Left 2 !.param RloadVal=22
TEXT -2368 -384 Left 2 !.param RaVal=50
TEXT -2368 -352 Left 2 !.param RbVal=46.7
TEXT -2368 -320 Left 2 !.param CfVal=2p
TEXT -2368 -288 Left 2 !.param Rfn=249
TEXT -2368 -256 Left 2 !.param Rfp=249
